*SPEF "ieee 1481-1999"
*DESIGN "mariam_updown_counter"
*DATE "11:11:11 Fri 11 11, 1111"
*VENDOR "OpenRCX"
*PROGRAM "Parallel Extraction"
*VERSION "1.0"
*DESIGN_FLOW "NAME_SCOPE LOCAL" "PIN_CAP NONE"
*DIVIDER /
*DELIMITER :
*BUS_DELIMITER []
*T_UNIT 1 NS
*C_UNIT 1 PF
*R_UNIT 1 OHM
*L_UNIT 1 HENRY

*NAME_MAP
*1 clk
*2 counter[0]
*3 counter[1]
*4 counter[2]
*5 counter[3]
*6 net7
*7 net8
*8 net9
*9 net10
*10 reset
*11 up_down
*14 _00_
*15 _01_
*16 _02_
*17 _03_
*18 _04_
*19 _05_
*20 _06_
*21 _07_
*22 _08_
*23 _09_
*24 _10_
*25 _11_
*26 _12_
*27 _13_
*28 _14_
*29 _15_
*30 _16_
*31 clknet_0_clk
*32 clknet_1_0__leaf_clk
*33 clknet_1_1__leaf_clk
*34 net1
*35 net2
*36 net3
*37 net4
*38 net5
*39 net6
*40 FILLER_0_109
*41 FILLER_0_113
*42 FILLER_0_125
*43 FILLER_0_137
*44 FILLER_0_141
*45 FILLER_0_15
*46 FILLER_0_153
*47 FILLER_0_165
*48 FILLER_0_169
*49 FILLER_0_181
*50 FILLER_0_189
*51 FILLER_0_27
*52 FILLER_0_29
*53 FILLER_0_3
*54 FILLER_0_41
*55 FILLER_0_53
*56 FILLER_0_57
*57 FILLER_0_69
*58 FILLER_0_81
*59 FILLER_0_85
*60 FILLER_0_97
*61 FILLER_10_109
*62 FILLER_10_121
*63 FILLER_10_133
*64 FILLER_10_139
*65 FILLER_10_141
*66 FILLER_10_15
*67 FILLER_10_153
*68 FILLER_10_165
*69 FILLER_10_177
*70 FILLER_10_189
*71 FILLER_10_27
*72 FILLER_10_29
*73 FILLER_10_3
*74 FILLER_10_41
*75 FILLER_10_53
*76 FILLER_10_65
*77 FILLER_10_77
*78 FILLER_10_83
*79 FILLER_10_85
*80 FILLER_10_97
*81 FILLER_11_105
*82 FILLER_11_111
*83 FILLER_11_113
*84 FILLER_11_125
*85 FILLER_11_137
*86 FILLER_11_149
*87 FILLER_11_15
*88 FILLER_11_161
*89 FILLER_11_167
*90 FILLER_11_169
*91 FILLER_11_181
*92 FILLER_11_189
*93 FILLER_11_27
*94 FILLER_11_3
*95 FILLER_11_39
*96 FILLER_11_51
*97 FILLER_11_55
*98 FILLER_11_57
*99 FILLER_11_69
*100 FILLER_11_81
*101 FILLER_11_93
*102 FILLER_12_109
*103 FILLER_12_121
*104 FILLER_12_133
*105 FILLER_12_139
*106 FILLER_12_141
*107 FILLER_12_15
*108 FILLER_12_153
*109 FILLER_12_165
*110 FILLER_12_177
*111 FILLER_12_189
*112 FILLER_12_27
*113 FILLER_12_29
*114 FILLER_12_3
*115 FILLER_12_41
*116 FILLER_12_53
*117 FILLER_12_65
*118 FILLER_12_77
*119 FILLER_12_83
*120 FILLER_12_85
*121 FILLER_12_97
*122 FILLER_13_105
*123 FILLER_13_111
*124 FILLER_13_113
*125 FILLER_13_125
*126 FILLER_13_137
*127 FILLER_13_149
*128 FILLER_13_15
*129 FILLER_13_161
*130 FILLER_13_167
*131 FILLER_13_169
*132 FILLER_13_181
*133 FILLER_13_189
*134 FILLER_13_27
*135 FILLER_13_3
*136 FILLER_13_39
*137 FILLER_13_51
*138 FILLER_13_55
*139 FILLER_13_57
*140 FILLER_13_69
*141 FILLER_13_81
*142 FILLER_13_93
*143 FILLER_14_109
*144 FILLER_14_121
*145 FILLER_14_133
*146 FILLER_14_139
*147 FILLER_14_141
*148 FILLER_14_15
*149 FILLER_14_153
*150 FILLER_14_165
*151 FILLER_14_177
*152 FILLER_14_189
*153 FILLER_14_27
*154 FILLER_14_29
*155 FILLER_14_3
*156 FILLER_14_41
*157 FILLER_14_53
*158 FILLER_14_65
*159 FILLER_14_77
*160 FILLER_14_83
*161 FILLER_14_85
*162 FILLER_14_97
*163 FILLER_15_105
*164 FILLER_15_111
*165 FILLER_15_113
*166 FILLER_15_125
*167 FILLER_15_137
*168 FILLER_15_149
*169 FILLER_15_15
*170 FILLER_15_161
*171 FILLER_15_167
*172 FILLER_15_169
*173 FILLER_15_181
*174 FILLER_15_189
*175 FILLER_15_27
*176 FILLER_15_3
*177 FILLER_15_39
*178 FILLER_15_51
*179 FILLER_15_55
*180 FILLER_15_57
*181 FILLER_15_69
*182 FILLER_15_81
*183 FILLER_15_93
*184 FILLER_16_109
*185 FILLER_16_121
*186 FILLER_16_133
*187 FILLER_16_139
*188 FILLER_16_141
*189 FILLER_16_153
*190 FILLER_16_165
*191 FILLER_16_177
*192 FILLER_16_189
*193 FILLER_16_21
*194 FILLER_16_27
*195 FILLER_16_29
*196 FILLER_16_3
*197 FILLER_16_41
*198 FILLER_16_53
*199 FILLER_16_65
*200 FILLER_16_77
*201 FILLER_16_83
*202 FILLER_16_85
*203 FILLER_16_9
*204 FILLER_16_97
*205 FILLER_17_105
*206 FILLER_17_111
*207 FILLER_17_113
*208 FILLER_17_125
*209 FILLER_17_137
*210 FILLER_17_149
*211 FILLER_17_15
*212 FILLER_17_161
*213 FILLER_17_167
*214 FILLER_17_169
*215 FILLER_17_181
*216 FILLER_17_189
*217 FILLER_17_27
*218 FILLER_17_3
*219 FILLER_17_39
*220 FILLER_17_51
*221 FILLER_17_55
*222 FILLER_17_57
*223 FILLER_17_69
*224 FILLER_17_81
*225 FILLER_17_93
*226 FILLER_18_109
*227 FILLER_18_121
*228 FILLER_18_133
*229 FILLER_18_139
*230 FILLER_18_141
*231 FILLER_18_15
*232 FILLER_18_153
*233 FILLER_18_165
*234 FILLER_18_177
*235 FILLER_18_189
*236 FILLER_18_27
*237 FILLER_18_29
*238 FILLER_18_3
*239 FILLER_18_41
*240 FILLER_18_53
*241 FILLER_18_65
*242 FILLER_18_77
*243 FILLER_18_83
*244 FILLER_18_85
*245 FILLER_18_97
*246 FILLER_19_105
*247 FILLER_19_111
*248 FILLER_19_113
*249 FILLER_19_125
*250 FILLER_19_137
*251 FILLER_19_149
*252 FILLER_19_15
*253 FILLER_19_161
*254 FILLER_19_167
*255 FILLER_19_169
*256 FILLER_19_181
*257 FILLER_19_189
*258 FILLER_19_27
*259 FILLER_19_3
*260 FILLER_19_39
*261 FILLER_19_51
*262 FILLER_19_55
*263 FILLER_19_57
*264 FILLER_19_69
*265 FILLER_19_81
*266 FILLER_19_93
*267 FILLER_1_105
*268 FILLER_1_111
*269 FILLER_1_113
*270 FILLER_1_125
*271 FILLER_1_137
*272 FILLER_1_149
*273 FILLER_1_15
*274 FILLER_1_161
*275 FILLER_1_167
*276 FILLER_1_169
*277 FILLER_1_181
*278 FILLER_1_189
*279 FILLER_1_27
*280 FILLER_1_3
*281 FILLER_1_39
*282 FILLER_1_51
*283 FILLER_1_55
*284 FILLER_1_57
*285 FILLER_1_69
*286 FILLER_1_81
*287 FILLER_1_93
*288 FILLER_20_109
*289 FILLER_20_121
*290 FILLER_20_133
*291 FILLER_20_139
*292 FILLER_20_141
*293 FILLER_20_15
*294 FILLER_20_153
*295 FILLER_20_165
*296 FILLER_20_177
*297 FILLER_20_189
*298 FILLER_20_27
*299 FILLER_20_29
*300 FILLER_20_3
*301 FILLER_20_41
*302 FILLER_20_53
*303 FILLER_20_65
*304 FILLER_20_77
*305 FILLER_20_83
*306 FILLER_20_85
*307 FILLER_20_97
*308 FILLER_21_105
*309 FILLER_21_111
*310 FILLER_21_113
*311 FILLER_21_12
*312 FILLER_21_125
*313 FILLER_21_137
*314 FILLER_21_149
*315 FILLER_21_161
*316 FILLER_21_167
*317 FILLER_21_169
*318 FILLER_21_181
*319 FILLER_21_189
*320 FILLER_21_24
*321 FILLER_21_3
*322 FILLER_21_36
*323 FILLER_21_48
*324 FILLER_21_57
*325 FILLER_21_69
*326 FILLER_21_81
*327 FILLER_21_93
*328 FILLER_22_109
*329 FILLER_22_12
*330 FILLER_22_121
*331 FILLER_22_133
*332 FILLER_22_139
*333 FILLER_22_141
*334 FILLER_22_153
*335 FILLER_22_165
*336 FILLER_22_177
*337 FILLER_22_189
*338 FILLER_22_22
*339 FILLER_22_29
*340 FILLER_22_3
*341 FILLER_22_41
*342 FILLER_22_53
*343 FILLER_22_65
*344 FILLER_22_77
*345 FILLER_22_83
*346 FILLER_22_85
*347 FILLER_22_97
*348 FILLER_23_105
*349 FILLER_23_111
*350 FILLER_23_113
*351 FILLER_23_125
*352 FILLER_23_137
*353 FILLER_23_149
*354 FILLER_23_161
*355 FILLER_23_167
*356 FILLER_23_169
*357 FILLER_23_181
*358 FILLER_23_189
*359 FILLER_23_26
*360 FILLER_23_3
*361 FILLER_23_38
*362 FILLER_23_50
*363 FILLER_23_57
*364 FILLER_23_69
*365 FILLER_23_81
*366 FILLER_23_93
*367 FILLER_24_109
*368 FILLER_24_121
*369 FILLER_24_133
*370 FILLER_24_139
*371 FILLER_24_141
*372 FILLER_24_153
*373 FILLER_24_165
*374 FILLER_24_177
*375 FILLER_24_189
*376 FILLER_24_25
*377 FILLER_24_29
*378 FILLER_24_3
*379 FILLER_24_34
*380 FILLER_24_46
*381 FILLER_24_58
*382 FILLER_24_70
*383 FILLER_24_82
*384 FILLER_24_85
*385 FILLER_24_97
*386 FILLER_25_105
*387 FILLER_25_111
*388 FILLER_25_113
*389 FILLER_25_125
*390 FILLER_25_137
*391 FILLER_25_149
*392 FILLER_25_161
*393 FILLER_25_167
*394 FILLER_25_169
*395 FILLER_25_181
*396 FILLER_25_189
*397 FILLER_25_28
*398 FILLER_25_3
*399 FILLER_25_35
*400 FILLER_25_47
*401 FILLER_25_55
*402 FILLER_25_57
*403 FILLER_25_69
*404 FILLER_25_81
*405 FILLER_25_93
*406 FILLER_26_109
*407 FILLER_26_121
*408 FILLER_26_133
*409 FILLER_26_139
*410 FILLER_26_141
*411 FILLER_26_15
*412 FILLER_26_153
*413 FILLER_26_165
*414 FILLER_26_177
*415 FILLER_26_189
*416 FILLER_26_25
*417 FILLER_26_29
*418 FILLER_26_3
*419 FILLER_26_41
*420 FILLER_26_53
*421 FILLER_26_65
*422 FILLER_26_7
*423 FILLER_26_77
*424 FILLER_26_83
*425 FILLER_26_85
*426 FILLER_26_97
*427 FILLER_27_10
*428 FILLER_27_105
*429 FILLER_27_111
*430 FILLER_27_113
*431 FILLER_27_125
*432 FILLER_27_137
*433 FILLER_27_149
*434 FILLER_27_161
*435 FILLER_27_167
*436 FILLER_27_169
*437 FILLER_27_17
*438 FILLER_27_181
*439 FILLER_27_189
*440 FILLER_27_29
*441 FILLER_27_3
*442 FILLER_27_41
*443 FILLER_27_53
*444 FILLER_27_57
*445 FILLER_27_69
*446 FILLER_27_81
*447 FILLER_27_93
*448 FILLER_28_109
*449 FILLER_28_121
*450 FILLER_28_133
*451 FILLER_28_139
*452 FILLER_28_141
*453 FILLER_28_15
*454 FILLER_28_153
*455 FILLER_28_165
*456 FILLER_28_177
*457 FILLER_28_189
*458 FILLER_28_27
*459 FILLER_28_29
*460 FILLER_28_3
*461 FILLER_28_41
*462 FILLER_28_53
*463 FILLER_28_65
*464 FILLER_28_77
*465 FILLER_28_83
*466 FILLER_28_85
*467 FILLER_28_97
*468 FILLER_29_105
*469 FILLER_29_111
*470 FILLER_29_113
*471 FILLER_29_125
*472 FILLER_29_137
*473 FILLER_29_149
*474 FILLER_29_161
*475 FILLER_29_167
*476 FILLER_29_169
*477 FILLER_29_181
*478 FILLER_29_189
*479 FILLER_29_21
*480 FILLER_29_3
*481 FILLER_29_33
*482 FILLER_29_45
*483 FILLER_29_53
*484 FILLER_29_57
*485 FILLER_29_69
*486 FILLER_29_81
*487 FILLER_29_9
*488 FILLER_29_93
*489 FILLER_2_109
*490 FILLER_2_121
*491 FILLER_2_133
*492 FILLER_2_139
*493 FILLER_2_141
*494 FILLER_2_15
*495 FILLER_2_153
*496 FILLER_2_165
*497 FILLER_2_177
*498 FILLER_2_189
*499 FILLER_2_27
*500 FILLER_2_29
*501 FILLER_2_3
*502 FILLER_2_41
*503 FILLER_2_53
*504 FILLER_2_65
*505 FILLER_2_77
*506 FILLER_2_83
*507 FILLER_2_85
*508 FILLER_2_97
*509 FILLER_30_109
*510 FILLER_30_121
*511 FILLER_30_133
*512 FILLER_30_139
*513 FILLER_30_141
*514 FILLER_30_15
*515 FILLER_30_153
*516 FILLER_30_165
*517 FILLER_30_177
*518 FILLER_30_188
*519 FILLER_30_27
*520 FILLER_30_29
*521 FILLER_30_3
*522 FILLER_30_41
*523 FILLER_30_53
*524 FILLER_30_65
*525 FILLER_30_77
*526 FILLER_30_83
*527 FILLER_30_85
*528 FILLER_30_97
*529 FILLER_31_105
*530 FILLER_31_111
*531 FILLER_31_113
*532 FILLER_31_12
*533 FILLER_31_125
*534 FILLER_31_137
*535 FILLER_31_149
*536 FILLER_31_161
*537 FILLER_31_167
*538 FILLER_31_169
*539 FILLER_31_181
*540 FILLER_31_189
*541 FILLER_31_24
*542 FILLER_31_3
*543 FILLER_31_36
*544 FILLER_31_48
*545 FILLER_31_57
*546 FILLER_31_69
*547 FILLER_31_81
*548 FILLER_31_93
*549 FILLER_32_109
*550 FILLER_32_121
*551 FILLER_32_133
*552 FILLER_32_139
*553 FILLER_32_141
*554 FILLER_32_153
*555 FILLER_32_16
*556 FILLER_32_165
*557 FILLER_32_177
*558 FILLER_32_189
*559 FILLER_32_29
*560 FILLER_32_3
*561 FILLER_32_41
*562 FILLER_32_53
*563 FILLER_32_65
*564 FILLER_32_77
*565 FILLER_32_83
*566 FILLER_32_85
*567 FILLER_32_97
*568 FILLER_33_105
*569 FILLER_33_111
*570 FILLER_33_113
*571 FILLER_33_125
*572 FILLER_33_137
*573 FILLER_33_149
*574 FILLER_33_161
*575 FILLER_33_167
*576 FILLER_33_169
*577 FILLER_33_181
*578 FILLER_33_189
*579 FILLER_33_26
*580 FILLER_33_3
*581 FILLER_33_38
*582 FILLER_33_50
*583 FILLER_33_57
*584 FILLER_33_69
*585 FILLER_33_81
*586 FILLER_33_93
*587 FILLER_34_109
*588 FILLER_34_121
*589 FILLER_34_133
*590 FILLER_34_139
*591 FILLER_34_141
*592 FILLER_34_153
*593 FILLER_34_165
*594 FILLER_34_177
*595 FILLER_34_189
*596 FILLER_34_25
*597 FILLER_34_29
*598 FILLER_34_3
*599 FILLER_34_34
*600 FILLER_34_46
*601 FILLER_34_58
*602 FILLER_34_70
*603 FILLER_34_82
*604 FILLER_34_85
*605 FILLER_34_97
*606 FILLER_35_105
*607 FILLER_35_111
*608 FILLER_35_113
*609 FILLER_35_125
*610 FILLER_35_137
*611 FILLER_35_149
*612 FILLER_35_161
*613 FILLER_35_167
*614 FILLER_35_169
*615 FILLER_35_181
*616 FILLER_35_189
*617 FILLER_35_25
*618 FILLER_35_3
*619 FILLER_35_37
*620 FILLER_35_49
*621 FILLER_35_55
*622 FILLER_35_57
*623 FILLER_35_69
*624 FILLER_35_81
*625 FILLER_35_93
*626 FILLER_36_109
*627 FILLER_36_12
*628 FILLER_36_121
*629 FILLER_36_133
*630 FILLER_36_139
*631 FILLER_36_141
*632 FILLER_36_153
*633 FILLER_36_165
*634 FILLER_36_177
*635 FILLER_36_189
*636 FILLER_36_19
*637 FILLER_36_27
*638 FILLER_36_29
*639 FILLER_36_3
*640 FILLER_36_41
*641 FILLER_36_53
*642 FILLER_36_65
*643 FILLER_36_77
*644 FILLER_36_83
*645 FILLER_36_85
*646 FILLER_36_97
*647 FILLER_37_105
*648 FILLER_37_11
*649 FILLER_37_111
*650 FILLER_37_113
*651 FILLER_37_125
*652 FILLER_37_137
*653 FILLER_37_149
*654 FILLER_37_161
*655 FILLER_37_167
*656 FILLER_37_169
*657 FILLER_37_181
*658 FILLER_37_189
*659 FILLER_37_23
*660 FILLER_37_3
*661 FILLER_37_35
*662 FILLER_37_47
*663 FILLER_37_55
*664 FILLER_37_57
*665 FILLER_37_69
*666 FILLER_37_7
*667 FILLER_37_81
*668 FILLER_37_93
*669 FILLER_38_109
*670 FILLER_38_121
*671 FILLER_38_133
*672 FILLER_38_139
*673 FILLER_38_141
*674 FILLER_38_15
*675 FILLER_38_153
*676 FILLER_38_165
*677 FILLER_38_177
*678 FILLER_38_189
*679 FILLER_38_27
*680 FILLER_38_29
*681 FILLER_38_3
*682 FILLER_38_41
*683 FILLER_38_53
*684 FILLER_38_65
*685 FILLER_38_77
*686 FILLER_38_83
*687 FILLER_38_85
*688 FILLER_38_97
*689 FILLER_39_105
*690 FILLER_39_111
*691 FILLER_39_113
*692 FILLER_39_125
*693 FILLER_39_137
*694 FILLER_39_149
*695 FILLER_39_15
*696 FILLER_39_161
*697 FILLER_39_167
*698 FILLER_39_169
*699 FILLER_39_181
*700 FILLER_39_189
*701 FILLER_39_27
*702 FILLER_39_3
*703 FILLER_39_39
*704 FILLER_39_51
*705 FILLER_39_55
*706 FILLER_39_57
*707 FILLER_39_69
*708 FILLER_39_81
*709 FILLER_39_93
*710 FILLER_3_105
*711 FILLER_3_111
*712 FILLER_3_113
*713 FILLER_3_125
*714 FILLER_3_137
*715 FILLER_3_149
*716 FILLER_3_161
*717 FILLER_3_167
*718 FILLER_3_169
*719 FILLER_3_181
*720 FILLER_3_189
*721 FILLER_3_21
*722 FILLER_3_3
*723 FILLER_3_33
*724 FILLER_3_45
*725 FILLER_3_53
*726 FILLER_3_57
*727 FILLER_3_69
*728 FILLER_3_81
*729 FILLER_3_9
*730 FILLER_3_93
*731 FILLER_40_109
*732 FILLER_40_121
*733 FILLER_40_133
*734 FILLER_40_139
*735 FILLER_40_141
*736 FILLER_40_15
*737 FILLER_40_153
*738 FILLER_40_165
*739 FILLER_40_177
*740 FILLER_40_189
*741 FILLER_40_27
*742 FILLER_40_29
*743 FILLER_40_3
*744 FILLER_40_41
*745 FILLER_40_53
*746 FILLER_40_65
*747 FILLER_40_77
*748 FILLER_40_83
*749 FILLER_40_85
*750 FILLER_40_97
*751 FILLER_41_105
*752 FILLER_41_111
*753 FILLER_41_113
*754 FILLER_41_125
*755 FILLER_41_137
*756 FILLER_41_149
*757 FILLER_41_16
*758 FILLER_41_161
*759 FILLER_41_167
*760 FILLER_41_169
*761 FILLER_41_181
*762 FILLER_41_189
*763 FILLER_41_28
*764 FILLER_41_3
*765 FILLER_41_40
*766 FILLER_41_52
*767 FILLER_41_57
*768 FILLER_41_69
*769 FILLER_41_81
*770 FILLER_41_9
*771 FILLER_41_93
*772 FILLER_42_109
*773 FILLER_42_121
*774 FILLER_42_133
*775 FILLER_42_139
*776 FILLER_42_141
*777 FILLER_42_153
*778 FILLER_42_165
*779 FILLER_42_177
*780 FILLER_42_189
*781 FILLER_42_26
*782 FILLER_42_29
*783 FILLER_42_3
*784 FILLER_42_41
*785 FILLER_42_53
*786 FILLER_42_65
*787 FILLER_42_77
*788 FILLER_42_83
*789 FILLER_42_85
*790 FILLER_42_97
*791 FILLER_43_105
*792 FILLER_43_111
*793 FILLER_43_113
*794 FILLER_43_12
*795 FILLER_43_125
*796 FILLER_43_137
*797 FILLER_43_149
*798 FILLER_43_161
*799 FILLER_43_167
*800 FILLER_43_169
*801 FILLER_43_181
*802 FILLER_43_189
*803 FILLER_43_24
*804 FILLER_43_3
*805 FILLER_43_36
*806 FILLER_43_48
*807 FILLER_43_57
*808 FILLER_43_69
*809 FILLER_43_81
*810 FILLER_43_93
*811 FILLER_44_109
*812 FILLER_44_121
*813 FILLER_44_133
*814 FILLER_44_139
*815 FILLER_44_141
*816 FILLER_44_15
*817 FILLER_44_153
*818 FILLER_44_165
*819 FILLER_44_177
*820 FILLER_44_189
*821 FILLER_44_27
*822 FILLER_44_29
*823 FILLER_44_3
*824 FILLER_44_41
*825 FILLER_44_53
*826 FILLER_44_65
*827 FILLER_44_77
*828 FILLER_44_83
*829 FILLER_44_85
*830 FILLER_44_97
*831 FILLER_45_105
*832 FILLER_45_111
*833 FILLER_45_113
*834 FILLER_45_125
*835 FILLER_45_137
*836 FILLER_45_149
*837 FILLER_45_15
*838 FILLER_45_161
*839 FILLER_45_167
*840 FILLER_45_169
*841 FILLER_45_181
*842 FILLER_45_189
*843 FILLER_45_27
*844 FILLER_45_3
*845 FILLER_45_39
*846 FILLER_45_51
*847 FILLER_45_55
*848 FILLER_45_57
*849 FILLER_45_69
*850 FILLER_45_81
*851 FILLER_45_93
*852 FILLER_46_109
*853 FILLER_46_121
*854 FILLER_46_133
*855 FILLER_46_139
*856 FILLER_46_141
*857 FILLER_46_15
*858 FILLER_46_153
*859 FILLER_46_165
*860 FILLER_46_177
*861 FILLER_46_189
*862 FILLER_46_27
*863 FILLER_46_29
*864 FILLER_46_3
*865 FILLER_46_41
*866 FILLER_46_53
*867 FILLER_46_65
*868 FILLER_46_77
*869 FILLER_46_83
*870 FILLER_46_85
*871 FILLER_46_97
*872 FILLER_47_105
*873 FILLER_47_111
*874 FILLER_47_113
*875 FILLER_47_125
*876 FILLER_47_137
*877 FILLER_47_149
*878 FILLER_47_15
*879 FILLER_47_161
*880 FILLER_47_167
*881 FILLER_47_169
*882 FILLER_47_181
*883 FILLER_47_189
*884 FILLER_47_27
*885 FILLER_47_3
*886 FILLER_47_39
*887 FILLER_47_51
*888 FILLER_47_55
*889 FILLER_47_57
*890 FILLER_47_69
*891 FILLER_47_81
*892 FILLER_47_93
*893 FILLER_48_109
*894 FILLER_48_121
*895 FILLER_48_133
*896 FILLER_48_139
*897 FILLER_48_141
*898 FILLER_48_15
*899 FILLER_48_153
*900 FILLER_48_165
*901 FILLER_48_177
*902 FILLER_48_189
*903 FILLER_48_27
*904 FILLER_48_29
*905 FILLER_48_3
*906 FILLER_48_41
*907 FILLER_48_53
*908 FILLER_48_65
*909 FILLER_48_77
*910 FILLER_48_83
*911 FILLER_48_85
*912 FILLER_48_97
*913 FILLER_49_105
*914 FILLER_49_111
*915 FILLER_49_113
*916 FILLER_49_125
*917 FILLER_49_137
*918 FILLER_49_149
*919 FILLER_49_15
*920 FILLER_49_161
*921 FILLER_49_167
*922 FILLER_49_169
*923 FILLER_49_181
*924 FILLER_49_189
*925 FILLER_49_27
*926 FILLER_49_3
*927 FILLER_49_39
*928 FILLER_49_51
*929 FILLER_49_55
*930 FILLER_49_57
*931 FILLER_49_69
*932 FILLER_49_81
*933 FILLER_49_93
*934 FILLER_4_109
*935 FILLER_4_121
*936 FILLER_4_133
*937 FILLER_4_139
*938 FILLER_4_141
*939 FILLER_4_15
*940 FILLER_4_153
*941 FILLER_4_165
*942 FILLER_4_177
*943 FILLER_4_189
*944 FILLER_4_27
*945 FILLER_4_29
*946 FILLER_4_3
*947 FILLER_4_41
*948 FILLER_4_53
*949 FILLER_4_65
*950 FILLER_4_77
*951 FILLER_4_83
*952 FILLER_4_85
*953 FILLER_4_97
*954 FILLER_50_109
*955 FILLER_50_121
*956 FILLER_50_133
*957 FILLER_50_139
*958 FILLER_50_141
*959 FILLER_50_15
*960 FILLER_50_153
*961 FILLER_50_165
*962 FILLER_50_177
*963 FILLER_50_189
*964 FILLER_50_27
*965 FILLER_50_29
*966 FILLER_50_3
*967 FILLER_50_41
*968 FILLER_50_53
*969 FILLER_50_65
*970 FILLER_50_77
*971 FILLER_50_83
*972 FILLER_50_85
*973 FILLER_50_97
*974 FILLER_51_105
*975 FILLER_51_111
*976 FILLER_51_113
*977 FILLER_51_125
*978 FILLER_51_137
*979 FILLER_51_149
*980 FILLER_51_15
*981 FILLER_51_161
*982 FILLER_51_167
*983 FILLER_51_169
*984 FILLER_51_181
*985 FILLER_51_189
*986 FILLER_51_27
*987 FILLER_51_3
*988 FILLER_51_39
*989 FILLER_51_51
*990 FILLER_51_55
*991 FILLER_51_57
*992 FILLER_51_69
*993 FILLER_51_81
*994 FILLER_51_93
*995 FILLER_52_109
*996 FILLER_52_121
*997 FILLER_52_133
*998 FILLER_52_139
*999 FILLER_52_141
*1000 FILLER_52_15
*1001 FILLER_52_153
*1002 FILLER_52_165
*1003 FILLER_52_177
*1004 FILLER_52_189
*1005 FILLER_52_27
*1006 FILLER_52_29
*1007 FILLER_52_3
*1008 FILLER_52_41
*1009 FILLER_52_53
*1010 FILLER_52_65
*1011 FILLER_52_77
*1012 FILLER_52_83
*1013 FILLER_52_85
*1014 FILLER_52_97
*1015 FILLER_53_105
*1016 FILLER_53_111
*1017 FILLER_53_113
*1018 FILLER_53_125
*1019 FILLER_53_137
*1020 FILLER_53_149
*1021 FILLER_53_15
*1022 FILLER_53_161
*1023 FILLER_53_167
*1024 FILLER_53_169
*1025 FILLER_53_181
*1026 FILLER_53_188
*1027 FILLER_53_27
*1028 FILLER_53_3
*1029 FILLER_53_39
*1030 FILLER_53_51
*1031 FILLER_53_55
*1032 FILLER_53_57
*1033 FILLER_53_69
*1034 FILLER_53_81
*1035 FILLER_53_93
*1036 FILLER_54_109
*1037 FILLER_54_121
*1038 FILLER_54_133
*1039 FILLER_54_139
*1040 FILLER_54_141
*1041 FILLER_54_15
*1042 FILLER_54_153
*1043 FILLER_54_165
*1044 FILLER_54_177
*1045 FILLER_54_189
*1046 FILLER_54_27
*1047 FILLER_54_29
*1048 FILLER_54_3
*1049 FILLER_54_41
*1050 FILLER_54_53
*1051 FILLER_54_65
*1052 FILLER_54_77
*1053 FILLER_54_83
*1054 FILLER_54_85
*1055 FILLER_54_97
*1056 FILLER_55_105
*1057 FILLER_55_111
*1058 FILLER_55_113
*1059 FILLER_55_125
*1060 FILLER_55_137
*1061 FILLER_55_149
*1062 FILLER_55_161
*1063 FILLER_55_167
*1064 FILLER_55_169
*1065 FILLER_55_181
*1066 FILLER_55_189
*1067 FILLER_55_21
*1068 FILLER_55_3
*1069 FILLER_55_33
*1070 FILLER_55_45
*1071 FILLER_55_53
*1072 FILLER_55_57
*1073 FILLER_55_69
*1074 FILLER_55_81
*1075 FILLER_55_9
*1076 FILLER_55_93
*1077 FILLER_56_109
*1078 FILLER_56_121
*1079 FILLER_56_133
*1080 FILLER_56_139
*1081 FILLER_56_141
*1082 FILLER_56_15
*1083 FILLER_56_153
*1084 FILLER_56_165
*1085 FILLER_56_177
*1086 FILLER_56_189
*1087 FILLER_56_27
*1088 FILLER_56_29
*1089 FILLER_56_3
*1090 FILLER_56_41
*1091 FILLER_56_53
*1092 FILLER_56_65
*1093 FILLER_56_77
*1094 FILLER_56_83
*1095 FILLER_56_85
*1096 FILLER_56_97
*1097 FILLER_57_105
*1098 FILLER_57_111
*1099 FILLER_57_113
*1100 FILLER_57_125
*1101 FILLER_57_137
*1102 FILLER_57_149
*1103 FILLER_57_15
*1104 FILLER_57_161
*1105 FILLER_57_167
*1106 FILLER_57_169
*1107 FILLER_57_181
*1108 FILLER_57_189
*1109 FILLER_57_27
*1110 FILLER_57_3
*1111 FILLER_57_39
*1112 FILLER_57_51
*1113 FILLER_57_55
*1114 FILLER_57_57
*1115 FILLER_57_69
*1116 FILLER_57_81
*1117 FILLER_57_93
*1118 FILLER_58_109
*1119 FILLER_58_121
*1120 FILLER_58_133
*1121 FILLER_58_139
*1122 FILLER_58_141
*1123 FILLER_58_15
*1124 FILLER_58_153
*1125 FILLER_58_165
*1126 FILLER_58_177
*1127 FILLER_58_189
*1128 FILLER_58_27
*1129 FILLER_58_29
*1130 FILLER_58_3
*1131 FILLER_58_41
*1132 FILLER_58_53
*1133 FILLER_58_65
*1134 FILLER_58_77
*1135 FILLER_58_83
*1136 FILLER_58_85
*1137 FILLER_58_97
*1138 FILLER_59_105
*1139 FILLER_59_111
*1140 FILLER_59_113
*1141 FILLER_59_125
*1142 FILLER_59_137
*1143 FILLER_59_149
*1144 FILLER_59_15
*1145 FILLER_59_161
*1146 FILLER_59_167
*1147 FILLER_59_169
*1148 FILLER_59_181
*1149 FILLER_59_189
*1150 FILLER_59_27
*1151 FILLER_59_3
*1152 FILLER_59_39
*1153 FILLER_59_51
*1154 FILLER_59_55
*1155 FILLER_59_57
*1156 FILLER_59_69
*1157 FILLER_59_81
*1158 FILLER_59_93
*1159 FILLER_5_105
*1160 FILLER_5_111
*1161 FILLER_5_113
*1162 FILLER_5_125
*1163 FILLER_5_137
*1164 FILLER_5_149
*1165 FILLER_5_15
*1166 FILLER_5_161
*1167 FILLER_5_167
*1168 FILLER_5_169
*1169 FILLER_5_181
*1170 FILLER_5_189
*1171 FILLER_5_27
*1172 FILLER_5_3
*1173 FILLER_5_39
*1174 FILLER_5_51
*1175 FILLER_5_55
*1176 FILLER_5_57
*1177 FILLER_5_69
*1178 FILLER_5_81
*1179 FILLER_5_93
*1180 FILLER_60_109
*1181 FILLER_60_121
*1182 FILLER_60_133
*1183 FILLER_60_139
*1184 FILLER_60_141
*1185 FILLER_60_15
*1186 FILLER_60_153
*1187 FILLER_60_165
*1188 FILLER_60_177
*1189 FILLER_60_189
*1190 FILLER_60_27
*1191 FILLER_60_29
*1192 FILLER_60_3
*1193 FILLER_60_41
*1194 FILLER_60_53
*1195 FILLER_60_65
*1196 FILLER_60_77
*1197 FILLER_60_83
*1198 FILLER_60_85
*1199 FILLER_60_97
*1200 FILLER_61_105
*1201 FILLER_61_111
*1202 FILLER_61_113
*1203 FILLER_61_125
*1204 FILLER_61_137
*1205 FILLER_61_149
*1206 FILLER_61_15
*1207 FILLER_61_161
*1208 FILLER_61_167
*1209 FILLER_61_169
*1210 FILLER_61_181
*1211 FILLER_61_189
*1212 FILLER_61_27
*1213 FILLER_61_3
*1214 FILLER_61_39
*1215 FILLER_61_51
*1216 FILLER_61_55
*1217 FILLER_61_57
*1218 FILLER_61_69
*1219 FILLER_61_81
*1220 FILLER_61_93
*1221 FILLER_62_109
*1222 FILLER_62_121
*1223 FILLER_62_133
*1224 FILLER_62_139
*1225 FILLER_62_141
*1226 FILLER_62_15
*1227 FILLER_62_153
*1228 FILLER_62_165
*1229 FILLER_62_177
*1230 FILLER_62_189
*1231 FILLER_62_27
*1232 FILLER_62_29
*1233 FILLER_62_3
*1234 FILLER_62_41
*1235 FILLER_62_53
*1236 FILLER_62_65
*1237 FILLER_62_77
*1238 FILLER_62_83
*1239 FILLER_62_85
*1240 FILLER_62_97
*1241 FILLER_63_105
*1242 FILLER_63_111
*1243 FILLER_63_113
*1244 FILLER_63_125
*1245 FILLER_63_137
*1246 FILLER_63_149
*1247 FILLER_63_15
*1248 FILLER_63_161
*1249 FILLER_63_167
*1250 FILLER_63_169
*1251 FILLER_63_181
*1252 FILLER_63_189
*1253 FILLER_63_27
*1254 FILLER_63_3
*1255 FILLER_63_39
*1256 FILLER_63_51
*1257 FILLER_63_55
*1258 FILLER_63_57
*1259 FILLER_63_69
*1260 FILLER_63_81
*1261 FILLER_63_93
*1262 FILLER_64_109
*1263 FILLER_64_121
*1264 FILLER_64_133
*1265 FILLER_64_139
*1266 FILLER_64_141
*1267 FILLER_64_15
*1268 FILLER_64_153
*1269 FILLER_64_165
*1270 FILLER_64_177
*1271 FILLER_64_189
*1272 FILLER_64_27
*1273 FILLER_64_29
*1274 FILLER_64_3
*1275 FILLER_64_41
*1276 FILLER_64_53
*1277 FILLER_64_65
*1278 FILLER_64_77
*1279 FILLER_64_83
*1280 FILLER_64_85
*1281 FILLER_64_97
*1282 FILLER_65_105
*1283 FILLER_65_111
*1284 FILLER_65_113
*1285 FILLER_65_125
*1286 FILLER_65_137
*1287 FILLER_65_149
*1288 FILLER_65_15
*1289 FILLER_65_161
*1290 FILLER_65_167
*1291 FILLER_65_169
*1292 FILLER_65_181
*1293 FILLER_65_189
*1294 FILLER_65_27
*1295 FILLER_65_3
*1296 FILLER_65_39
*1297 FILLER_65_51
*1298 FILLER_65_55
*1299 FILLER_65_57
*1300 FILLER_65_69
*1301 FILLER_65_81
*1302 FILLER_65_93
*1303 FILLER_66_109
*1304 FILLER_66_121
*1305 FILLER_66_133
*1306 FILLER_66_139
*1307 FILLER_66_141
*1308 FILLER_66_15
*1309 FILLER_66_153
*1310 FILLER_66_165
*1311 FILLER_66_177
*1312 FILLER_66_189
*1313 FILLER_66_27
*1314 FILLER_66_29
*1315 FILLER_66_3
*1316 FILLER_66_41
*1317 FILLER_66_53
*1318 FILLER_66_65
*1319 FILLER_66_77
*1320 FILLER_66_83
*1321 FILLER_66_85
*1322 FILLER_66_97
*1323 FILLER_67_105
*1324 FILLER_67_111
*1325 FILLER_67_113
*1326 FILLER_67_125
*1327 FILLER_67_137
*1328 FILLER_67_149
*1329 FILLER_67_15
*1330 FILLER_67_161
*1331 FILLER_67_167
*1332 FILLER_67_169
*1333 FILLER_67_181
*1334 FILLER_67_189
*1335 FILLER_67_27
*1336 FILLER_67_3
*1337 FILLER_67_39
*1338 FILLER_67_51
*1339 FILLER_67_55
*1340 FILLER_67_57
*1341 FILLER_67_69
*1342 FILLER_67_81
*1343 FILLER_67_93
*1344 FILLER_68_109
*1345 FILLER_68_11
*1346 FILLER_68_121
*1347 FILLER_68_133
*1348 FILLER_68_139
*1349 FILLER_68_141
*1350 FILLER_68_153
*1351 FILLER_68_165
*1352 FILLER_68_177
*1353 FILLER_68_189
*1354 FILLER_68_23
*1355 FILLER_68_27
*1356 FILLER_68_29
*1357 FILLER_68_3
*1358 FILLER_68_41
*1359 FILLER_68_53
*1360 FILLER_68_65
*1361 FILLER_68_77
*1362 FILLER_68_83
*1363 FILLER_68_85
*1364 FILLER_68_97
*1365 FILLER_69_105
*1366 FILLER_69_111
*1367 FILLER_69_113
*1368 FILLER_69_125
*1369 FILLER_69_137
*1370 FILLER_69_149
*1371 FILLER_69_15
*1372 FILLER_69_161
*1373 FILLER_69_167
*1374 FILLER_69_169
*1375 FILLER_69_181
*1376 FILLER_69_189
*1377 FILLER_69_27
*1378 FILLER_69_3
*1379 FILLER_69_39
*1380 FILLER_69_51
*1381 FILLER_69_55
*1382 FILLER_69_57
*1383 FILLER_69_69
*1384 FILLER_69_81
*1385 FILLER_69_93
*1386 FILLER_6_109
*1387 FILLER_6_121
*1388 FILLER_6_133
*1389 FILLER_6_139
*1390 FILLER_6_141
*1391 FILLER_6_15
*1392 FILLER_6_153
*1393 FILLER_6_165
*1394 FILLER_6_177
*1395 FILLER_6_189
*1396 FILLER_6_27
*1397 FILLER_6_29
*1398 FILLER_6_3
*1399 FILLER_6_41
*1400 FILLER_6_53
*1401 FILLER_6_65
*1402 FILLER_6_77
*1403 FILLER_6_83
*1404 FILLER_6_85
*1405 FILLER_6_97
*1406 FILLER_70_109
*1407 FILLER_70_121
*1408 FILLER_70_133
*1409 FILLER_70_139
*1410 FILLER_70_141
*1411 FILLER_70_15
*1412 FILLER_70_153
*1413 FILLER_70_165
*1414 FILLER_70_177
*1415 FILLER_70_189
*1416 FILLER_70_27
*1417 FILLER_70_29
*1418 FILLER_70_3
*1419 FILLER_70_41
*1420 FILLER_70_53
*1421 FILLER_70_65
*1422 FILLER_70_77
*1423 FILLER_70_83
*1424 FILLER_70_85
*1425 FILLER_70_97
*1426 FILLER_71_105
*1427 FILLER_71_111
*1428 FILLER_71_113
*1429 FILLER_71_125
*1430 FILLER_71_137
*1431 FILLER_71_149
*1432 FILLER_71_15
*1433 FILLER_71_161
*1434 FILLER_71_167
*1435 FILLER_71_169
*1436 FILLER_71_181
*1437 FILLER_71_189
*1438 FILLER_71_27
*1439 FILLER_71_3
*1440 FILLER_71_39
*1441 FILLER_71_51
*1442 FILLER_71_55
*1443 FILLER_71_57
*1444 FILLER_71_69
*1445 FILLER_71_81
*1446 FILLER_71_93
*1447 FILLER_72_109
*1448 FILLER_72_121
*1449 FILLER_72_133
*1450 FILLER_72_139
*1451 FILLER_72_141
*1452 FILLER_72_15
*1453 FILLER_72_153
*1454 FILLER_72_165
*1455 FILLER_72_177
*1456 FILLER_72_189
*1457 FILLER_72_27
*1458 FILLER_72_29
*1459 FILLER_72_3
*1460 FILLER_72_41
*1461 FILLER_72_53
*1462 FILLER_72_65
*1463 FILLER_72_77
*1464 FILLER_72_83
*1465 FILLER_72_85
*1466 FILLER_72_97
*1467 FILLER_73_105
*1468 FILLER_73_111
*1469 FILLER_73_113
*1470 FILLER_73_125
*1471 FILLER_73_137
*1472 FILLER_73_149
*1473 FILLER_73_15
*1474 FILLER_73_161
*1475 FILLER_73_167
*1476 FILLER_73_169
*1477 FILLER_73_181
*1478 FILLER_73_189
*1479 FILLER_73_27
*1480 FILLER_73_3
*1481 FILLER_73_39
*1482 FILLER_73_51
*1483 FILLER_73_55
*1484 FILLER_73_57
*1485 FILLER_73_69
*1486 FILLER_73_81
*1487 FILLER_73_93
*1488 FILLER_74_109
*1489 FILLER_74_121
*1490 FILLER_74_133
*1491 FILLER_74_139
*1492 FILLER_74_141
*1493 FILLER_74_15
*1494 FILLER_74_153
*1495 FILLER_74_165
*1496 FILLER_74_177
*1497 FILLER_74_189
*1498 FILLER_74_27
*1499 FILLER_74_29
*1500 FILLER_74_3
*1501 FILLER_74_41
*1502 FILLER_74_53
*1503 FILLER_74_65
*1504 FILLER_74_77
*1505 FILLER_74_83
*1506 FILLER_74_85
*1507 FILLER_74_97
*1508 FILLER_75_105
*1509 FILLER_75_111
*1510 FILLER_75_113
*1511 FILLER_75_125
*1512 FILLER_75_137
*1513 FILLER_75_149
*1514 FILLER_75_15
*1515 FILLER_75_161
*1516 FILLER_75_167
*1517 FILLER_75_169
*1518 FILLER_75_181
*1519 FILLER_75_189
*1520 FILLER_75_27
*1521 FILLER_75_3
*1522 FILLER_75_39
*1523 FILLER_75_51
*1524 FILLER_75_55
*1525 FILLER_75_57
*1526 FILLER_75_69
*1527 FILLER_75_81
*1528 FILLER_75_93
*1529 FILLER_76_109
*1530 FILLER_76_121
*1531 FILLER_76_133
*1532 FILLER_76_139
*1533 FILLER_76_141
*1534 FILLER_76_15
*1535 FILLER_76_153
*1536 FILLER_76_165
*1537 FILLER_76_177
*1538 FILLER_76_188
*1539 FILLER_76_27
*1540 FILLER_76_29
*1541 FILLER_76_3
*1542 FILLER_76_41
*1543 FILLER_76_53
*1544 FILLER_76_65
*1545 FILLER_76_77
*1546 FILLER_76_83
*1547 FILLER_76_85
*1548 FILLER_76_97
*1549 FILLER_77_105
*1550 FILLER_77_111
*1551 FILLER_77_113
*1552 FILLER_77_125
*1553 FILLER_77_137
*1554 FILLER_77_149
*1555 FILLER_77_15
*1556 FILLER_77_161
*1557 FILLER_77_167
*1558 FILLER_77_169
*1559 FILLER_77_181
*1560 FILLER_77_189
*1561 FILLER_77_27
*1562 FILLER_77_3
*1563 FILLER_77_39
*1564 FILLER_77_51
*1565 FILLER_77_55
*1566 FILLER_77_57
*1567 FILLER_77_69
*1568 FILLER_77_81
*1569 FILLER_77_93
*1570 FILLER_78_109
*1571 FILLER_78_121
*1572 FILLER_78_133
*1573 FILLER_78_139
*1574 FILLER_78_141
*1575 FILLER_78_15
*1576 FILLER_78_153
*1577 FILLER_78_165
*1578 FILLER_78_177
*1579 FILLER_78_189
*1580 FILLER_78_27
*1581 FILLER_78_29
*1582 FILLER_78_3
*1583 FILLER_78_41
*1584 FILLER_78_53
*1585 FILLER_78_65
*1586 FILLER_78_77
*1587 FILLER_78_83
*1588 FILLER_78_85
*1589 FILLER_78_97
*1590 FILLER_79_105
*1591 FILLER_79_111
*1592 FILLER_79_113
*1593 FILLER_79_125
*1594 FILLER_79_137
*1595 FILLER_79_149
*1596 FILLER_79_15
*1597 FILLER_79_161
*1598 FILLER_79_167
*1599 FILLER_79_169
*1600 FILLER_79_181
*1601 FILLER_79_189
*1602 FILLER_79_27
*1603 FILLER_79_3
*1604 FILLER_79_39
*1605 FILLER_79_51
*1606 FILLER_79_55